
  -OEChem-11072411423D

 30 31  0     0  0  0  0  0  0999 V2000
    3.7696    3.2695    0.3370 C   0  0  0  0  0  0  0  0  0  0  0  0
    2.9469    1.9756    0.2283 C   0  0  0  0  0  0  0  0  0  0  0  0
    3.4325    0.8464    0.1622 O   0  0  0  0  0  0  0  0  0  0  0  0
    1.5781    2.2515    0.2144 O   0  0  0  0  0  0  0  0  0  0  0  0
    0.7974    1.1387    0.1192 C   0  0  0  0  0  0  0  0  0  0  0  0
    0.4377    0.6680   -1.1436 C   0  0  0  0  0  0  0  0  0  0  0  0
   -0.3596   -0.4705   -1.2627 C   0  0  0  0  0  0  0  0  0  0  0  0
   -0.7974   -1.1387   -0.1193 C   0  0  0  0  0  0  0  0  0  0  0  0
   -0.4377   -0.6680    1.1436 C   0  0  0  0  0  0  0  0  0  0  0  0
    0.3596    0.4705    1.2627 C   0  0  0  0  0  0  0  0  0  0  0  0
    0.7238    0.9443    2.5908 C   0  0  0  0  0  0  0  0  0  0  0  0
    1.3651    0.1939    3.3427 O   0  0  0  0  0  0  0  0  0  0  0  0
    0.3272    2.2515    2.9019 N   0  0  0  0  0  0  0  0  0  0  0  0
    0.5581    2.9820    4.0935 C   0  0  0  0  0  0  0  0  0  0  0  0
    1.1996    2.5831    5.1691 N   0  0  0  0  0  0  0  0  0  0  0  0
    1.1936    3.6059    6.0972 C   0  0  0  0  0  0  0  0  0  0  0  0
    0.5494    4.7635    5.7140 C   0  0  0  0  0  0  0  0  0  0  0  0
    0.3662    5.9646    6.4085 N   0  3  0  0  0  0  0  0  0  0  0  0
   -0.2652    6.9156    5.8635 O   0  0  0  0  0  0  0  0  0  0  0  0
    0.8329    6.0923    7.5769 O   0  5  0  0  0  0  0  0  0  0  0  0
   -0.0765    4.5755    4.1287 S   0  0  0  0  0  0  0  0  0  0  0  0
    4.0095    3.6787   -0.6521 H   0  0  0  0  0  0  0  0  0  0  0  0
    4.7237    3.0986    0.8513 H   0  0  0  0  0  0  0  0  0  0  0  0
    3.2524    4.0644    0.8895 H   0  0  0  0  0  0  0  0  0  0  0  0
    0.7755    1.1828   -2.0391 H   0  0  0  0  0  0  0  0  0  0  0  0
   -0.6400   -0.8363   -2.2463 H   0  0  0  0  0  0  0  0  0  0  0  0
   -1.4174   -2.0252   -0.2126 H   0  0  0  0  0  0  0  0  0  0  0  0
   -0.7844   -1.1973    2.0274 H   0  0  0  0  0  0  0  0  0  0  0  0
   -0.1743    2.7640    2.1801 H   0  0  0  0  0  0  0  0  0  0  0  0
    1.6811    3.4497    7.0507 H   0  0  0  0  0  0  0  0  0  0  0  0
  1  2  1  0  0  0  0
  2  3  2  0  0  0  0
  2  4  1  0  0  0  0
  4  5  1  0  0  0  0
  5 10  2  0  0  0  0
  5  6  1  0  0  0  0
  6  7  2  0  0  0  0
  7  8  1  0  0  0  0
  8  9  2  0  0  0  0
  9 10  1  0  0  0  0
 10 11  1  0  0  0  0
 11 12  2  0  0  0  0
 11 13  1  0  0  0  0
 13 14  1  0  0  0  0
 14 21  1  0  0  0  0
 14 15  2  0  0  0  0
 15 16  1  0  0  0  0
 16 17  2  0  0  0  0
 17 18  1  0  0  0  0
 18 19  2  0  0  0  0
 18 20  1  0  0  0  0
 17 21  1  0  0  0  0
  1 22  1  0  0  0  0
  1 23  1  0  0  0  0
  1 24  1  0  0  0  0
  6 25  1  0  0  0  0
  7 26  1  0  0  0  0
  8 27  1  0  0  0  0
  9 28  1  0  0  0  0
 13 29  1  0  0  0  0
 16 30  1  0  0  0  0
M  CHG  2  18   1  20  -1
M  END
$$$$
