
  -OEChem-11072411423D

  9  8  0     0  0  0  0  0  0999 V2000
    0.9121    0.4312   -0.1814 C   0  0  0  0  0  0  0  0  0  0  0  0
   -0.4673   -0.1926   -0.1868 C   0  0  0  0  0  0  0  0  0  0  0  0
   -0.8423   -0.4976    1.1484 O   0  0  0  0  0  0  0  0  0  0  0  0
    1.2325    0.6790   -1.1973 H   0  0  0  0  0  0  0  0  0  0  0  0
    0.9209    1.3429    0.4247 H   0  0  0  0  0  0  0  0  0  0  0  0
    1.6425   -0.2529    0.2624 H   0  0  0  0  0  0  0  0  0  0  0  0
   -0.4688   -1.1162   -0.7729 H   0  0  0  0  0  0  0  0  0  0  0  0
   -1.2012    0.5010   -0.6089 H   0  0  0  0  0  0  0  0  0  0  0  0
   -1.7278   -0.8943    1.1082 H   0  0  0  0  0  0  0  0  0  0  0  0
  1  2  1  0  0  0  0
  2  3  1  0  0  0  0
  1  4  1  0  0  0  0
  1  5  1  0  0  0  0
  1  6  1  0  0  0  0
  2  7  1  0  0  0  0
  2  8  1  0  0  0  0
  3  9  1  0  0  0  0
M  END
$$$$
