
  -OEChem-05282422523D

 30 31  0     0  0  0  0  0  0999 V2000
    2.6028    0.0182   -3.4732 C   0  0  0  0  0  0  0  0  0  0  0  0
    2.5882    0.1003   -1.9755 C   0  0  0  0  0  0  0  0  0  0  0  0
    3.0705    1.0230   -1.3322 O   0  0  0  0  0  0  0  0  0  0  0  0
    1.9455   -1.0259   -1.4740 O   0  0  0  0  0  0  0  0  0  0  0  0
    1.8851   -1.0363   -0.1124 C   0  0  0  0  0  0  0  0  0  0  0  0
    2.9210   -1.6309    0.6081 C   0  0  0  0  0  0  0  0  0  0  0  0
    2.8783   -1.6520    2.0022 C   0  0  0  0  0  0  0  0  0  0  0  0
    1.7997   -1.0786    2.6757 C   0  0  0  0  0  0  0  0  0  0  0  0
    0.7638   -0.4841    1.9551 C   0  0  0  0  0  0  0  0  0  0  0  0
    0.8066   -0.4630    0.5610 C   0  0  0  0  0  0  0  0  0  0  0  0
   -0.2853    0.1628   -0.1719 C   0  0  0  0  0  0  0  0  0  0  0  0
   -0.5699    1.3576   -0.0179 O   0  0  0  0  0  0  0  0  0  0  0  0
   -0.9481   -0.6767   -1.0794 N   0  0  0  0  0  0  0  0  0  0  0  0
   -2.0153   -0.3566   -1.9560 C   0  0  0  0  0  0  0  0  0  0  0  0
   -2.6135    0.8046   -2.1042 N   0  0  0  0  0  0  0  0  0  0  0  0
   -3.6016    0.6789   -3.0612 C   0  0  0  0  0  0  0  0  0  0  0  0
   -3.7398   -0.5726   -3.6240 C   0  0  0  0  0  0  0  0  0  0  0  0
   -4.6291   -1.0259   -4.6049 N   0  3  0  0  0  0  0  0  0  0  0  0
   -4.5858   -2.2321   -4.9834 O   0  0  0  0  0  0  0  0  0  0  0  0
   -5.4713   -0.2271   -5.1073 O   0  5  0  0  0  0  0  0  0  0  0  0
   -2.5898   -1.6429   -2.9360 S   0  0  0  0  0  0  0  0  0  0  0  0
    3.5065   -0.4976   -3.8076 H   0  0  0  0  0  0  0  0  0  0  0  0
    2.6043    1.0291   -3.8910 H   0  0  0  0  0  0  0  0  0  0  0  0
    1.7086   -0.5029   -3.8243 H   0  0  0  0  0  0  0  0  0  0  0  0
    3.7642   -2.0794    0.0899 H   0  0  0  0  0  0  0  0  0  0  0  0
    3.6848   -2.1149    2.5633 H   0  0  0  0  0  0  0  0  0  0  0  0
    1.7665   -1.0952    3.7611 H   0  0  0  0  0  0  0  0  0  0  0  0
   -0.0715   -0.0407    2.4911 H   0  0  0  0  0  0  0  0  0  0  0  0
   -0.6188   -1.6360   -1.1532 H   0  0  0  0  0  0  0  0  0  0  0  0
   -4.1991    1.5454   -3.3129 H   0  0  0  0  0  0  0  0  0  0  0  0
  1  2  1  0  0  0  0
  2  3  2  0  0  0  0
  2  4  1  0  0  0  0
  4  5  1  0  0  0  0
  5 10  2  0  0  0  0
  5  6  1  0  0  0  0
  6  7  2  0  0  0  0
  7  8  1  0  0  0  0
  8  9  2  0  0  0  0
  9 10  1  0  0  0  0
 10 11  1  0  0  0  0
 11 12  2  0  0  0  0
 11 13  1  0  0  0  0
 13 14  1  0  0  0  0
 14 21  1  0  0  0  0
 14 15  2  0  0  0  0
 15 16  1  0  0  0  0
 16 17  2  0  0  0  0
 17 18  1  0  0  0  0
 18 19  2  0  0  0  0
 18 20  1  0  0  0  0
 17 21  1  0  0  0  0
  1 22  1  0  0  0  0
  1 23  1  0  0  0  0
  1 24  1  0  0  0  0
  6 25  1  0  0  0  0
  7 26  1  0  0  0  0
  8 27  1  0  0  0  0
  9 28  1  0  0  0  0
 13 29  1  0  0  0  0
 16 30  1  0  0  0  0
M  CHG  2  18   1  20  -1
M  END
$$$$
